<?xml version="1.0" encoding="UTF-8"?>

<!-- generated on Sun Mar 23 22:55:19 2025 by Eclipse SUMO duarouter Version 1.8.0
<configuration xmlns:xsi="http://www.w3.org/2001/XMLSchema-instance" xsi:noNamespaceSchemaLocation="http://sumo.dlr.de/xsd/duarouterConfiguration.xsd">

    <input>
        <net-file value="/home/veins/Downloads/durham.net.xml"/>
        <route-files value="/home/veins/Downloads/durham.trips.xml"/>
    </input>

    <output>
        <output-file value="/home/veins/Downloads/durham.rou.xml"/>
        <alternatives-output value="/home/veins/Downloads/durham.rou.alt.xml"/>
    </output>

    <time>
        <begin value="0"/>
        <end value="10"/>
    </time>

    <report>
        <no-warnings value="true"/>
        <ignore-errors value="true"/>
        <no-step-log value="true"/>
    </report>

</configuration>
-->

<routes xmlns:xsi="http://www.w3.org/2001/XMLSchema-instance" xsi:noNamespaceSchemaLocation="http://sumo.dlr.de/xsd/routes_file.xsd">
    <vehicle id="0" depart="0.00">
        <route edges="25597324#4 25597324#5 25597324#6 24843561#8 146807712#0 146807712#1 146807712#2 146807712#3 803111636#0 803111636#1 4866597#0 4866597#1 4866597#2 803111635#0 803111635#1 785997324#1 785997324#2 785997324#3 786360378 785997325 786360379 786360377 786360376#1 786360376#2 786360375#0 786360375#1 829116548#0 829116548#1 24237507#0 24237507#1 24237507#2 786360374 850437082#0 850437082#1 850437082#2 24793873 24793872#0 24793872#1 24793872#2 24793872#3 24793872#4 24793872#5 377494912 -1340343228#1"/>
    </vehicle>
    <vehicle id="1" depart="0.10">
        <route edges="-4801456#4 -4801456#1 -4801456#0 -8153111#10 -8153111#7 -8153111#6 -8153111#5 -8153111#4 -8153111#2 -8153111#0 -502196981 -146658785#7 -146658785#5 -146658785#4 -146658785#3 -146658785#2 -146658785#1 -146658785#0 -757674089 -757674090 -377392193#4 -377392193#3 -377392193#2 -377392193#1 -377392193#0 -4800919#1 377392192#1 422092229#0 422092229#1 422092229#3 -422092229#3"/>
    </vehicle>
    <vehicle id="2" depart="0.20">
        <route edges="422092229#11 422092229#12 422092229#13 -28543279#14 -28543279#13 -28543279#12 -28543279#10 28543279#10"/>
    </vehicle>
    <vehicle id="3" depart="0.30">
        <route edges="8132526#3 755686155#0 755686155#1 151407582#0 151407582#1 151407582#2 755686154 4866597#0 4866597#1 4866597#2 803111635#0 803111635#1 785997324#1 785997324#2 785997324#3 786360378 785997325 786360379 786360377 786360376#1 786360376#2 786360375#0 786360375#1 829116548#0 829116548#1 24237507#0 24237507#1 24237507#2 786360374 850437082#0 850437082#1 850437082#2 850437080 921736784#0 24793876 -899638334 -24080379#10 28543279#0 28543279#1 28543279#2 28543279#3 28543279#4 28543279#6 28543279#7 28543279#8 28543279#9 28543279#10 24017893#0 24017893#1 24017893#2 24017893#3 24017893#4 -24017893#4 -24017893#3"/>
    </vehicle>
    <vehicle id="4" depart="0.40">
        <route edges="-917192768#2 -4801456#12 21332995#0 21332995#1 21332995#2 21332995#3 21332995#4 21332995#6 21332995#7 21332992#0 21332992#1 21332992#2 21332994#0 21332994#1 21332994#2 -8153111#2 -8153111#0 -502196981 -146658785#7 -146658785#5 -146658785#4 -146658785#3 -146658785#2 -146658785#1 -146658785#0 -757674089 -757674090 -377392193#4 -377392193#3 -377392193#2 -377392193#1 -377392193#0 -4800919#1 -377494912 -24793872#5 -24793872#4 -24793872#3 -24793872#2 -24793872#1 -24793872#0 43581151 921736784#0 921736784#1 921736784#2 -786360374 -24237507#2 -24237507#1 -24237507#0 -829116548#1 -829116548#0 -786360375#1 -786360375#0 -786360376#2 -786360376#1 -786360377 -786360379 -785997325 -786360378 -785997324#3 -785997324#2 -785997324#1 -803111635#1 -803111635#0 -4866597#2 -4866597#1 -4866597#0 801387571#0 801387571#1 801387571#2 146480965#0 -146480965#0"/>
    </vehicle>
    <vehicle id="5" depart="0.50">
        <route edges="-377494912 377494912 -1340343228#1 -1340343228#0 -997463020#2 -17088743#3 -17088743#2 -17088743#1 -17088743#0 17088743#0"/>
    </vehicle>
    <vehicle id="9" depart="0.90">
        <route edges="4810543 850437076 850437078#5 4803199#0 4803199#1 342220610#0 342220610#1 997463020#0 997463020#1 997463020#2 1340343228#0 1340343228#1 377392192#1 422092229#0 422092229#1 422092229#3 422092229#4 422092229#5 422092229#6 422092229#7 422092229#8 422092229#9 422092229#10 422092229#11 967098223#2 10507804#0 10507804#1 -10507804#1"/>
    </vehicle>
    <vehicle id="10" depart="1.00">
        <route edges="4803213#2 924940477 924940476 -924940476 -924940477 -4803213#2 -4803213#1 -4803213#0 -843630336 -843630337#6 -843630337#4 -843630337#3 -843630337#2 -22704080 -4801456#1 -4801456#0 -8153111#10 -8153111#7 -8153111#6 -8153111#5 -8153111#4 -8153111#2 -8153111#0 -502196981 -146658785#7 -146658785#5 -146658785#4 -146658785#3 -146658785#2 -146658785#1 -146658785#0 -757674089 -757674090 -377392193#4 -377392193#3 -377392193#2 -377392193#1 377392193#1"/>
    </vehicle>
    <vehicle id="11" depart="1.10">
        <route edges="-749321720#1 -749321720#0 4801486#15 4801486#16 4801486#18 4801486#19 4810543 850437076 850437078#5 4803199#0 4803199#1 342220610#0 342220610#1 997463020#0 997463020#1 997463020#2 1340343228#0 1340343228#1 -377494912 -24793872#5 -24793872#4 -24793872#3 -24793872#2 -24793872#1 -24793872#0 43581151 921736784#0 921736784#1 921736784#2 -786360374 -24237507#2 -24237507#1 -24237507#0 24581654#0 24581654#1 24581654#2 740487241 786955310 25597325 786955309 786955307 786955306#0 786955306#1 27493167#0 27493167#1 27493167#2 27493167#3 180756389#0 180756389#1 24843561#1 24843561#2 24843561#3 24843561#4 24843561#5 24843561#6 24843561#8 146807712#0 146807712#1 146807712#2 146807712#3 27280376#0 27280376#1 27280378#0 -27280378#0"/>
    </vehicle>
    <vehicle id="12" depart="1.20">
        <route edges="924940476 -924940476 -924940477 -4803213#2 -4803213#1 -4803213#0 -843630336 -843630337#6 -843630337#4 -843630337#3 -843630337#2 -22704080 -4801456#1 -4801456#0 -8153111#10 -8153111#7 -8153111#6 -8153111#5 -8153111#4 -8153111#2 -8153111#0 -502196981 -146658785#7 -146658785#5 -146658785#4 -146658785#3 -146658785#2 -146658785#1 -146658785#0 -757674089 -757674090 -377392193#4 -377392193#3 -377392193#2 -377392193#1 -377392193#0 -4800919#1 -377494912 -24793872#5 -24793872#4 -24793872#3 -24793872#2 -24793872#1 -24793872#0 43581151 921736784#0 921736784#1 921736784#2 -786360374 -24237507#2 -24237507#1 -24237507#0 -829116548#1 -829116548#0 -786360375#1 -786360375#0 -786360376#2 -786360376#1 -786360377 -786360379"/>
    </vehicle>
    <vehicle id="13" depart="1.30">
        <route edges="-24017893#0 -28543279#10 -28543279#9 -28543279#8 -28543279#7 -28543279#6 -28543279#4 -28543279#3 -28543279#2 -28543279#1 -28543279#0 -24080379#9 -24080379#8"/>
    </vehicle>
    <vehicle id="14" depart="1.40">
        <route edges="755686155#0 755686155#1 151407582#0 151407582#1 151407582#2 755686154 4866597#0 4866597#1 4866597#2 803111635#0 803111635#1 785997324#1 785997324#2 785997324#3 786360378 785997325 786360379 786360377 786360376#1 786360376#2 786360375#0 24581655#0 24581655#1 24581655#2 786955310 25597325 786955309 786955307 786955306#0 786955306#1 27493167#0 27493167#1 27493167#2 27493167#3 180756389#0 180756389#1 24843561#1"/>
    </vehicle>
    <vehicle id="16" depart="1.60">
        <route edges="180756389#1 24843561#1 24843561#2 24843561#3 24843561#4 24843561#5 24843561#6 24843561#8 146807712#0 146807712#1 146807712#2 146807712#3 803111636#0 803111636#1 4866597#0 4866597#1 4866597#2 803111635#0 803111635#1 785997324#1 785997324#2 785997324#3 786360378 785997325 786360379 786360377 786360376#1 786360376#2 786360375#0 786360375#1 829116548#0 829116548#1 24237507#0 24237507#1 24237507#2 786360374 850437082#0 850437082#1 850437082#2 24793873 24793872#0 24793872#1 24793872#2 24793872#3 24793872#4 24793872#5 377494912 -1340343228#1 -1340343228#0 -997463020#2 -997463020#1 -997463020#0 -342220610#1 -342220610#0 342220762#0 342220762#1 850437078#1 24794064#0 24794064#1 4800916#0 4800916#1 4800916#2 4800916#3 4800916#4 4800916#5 8879307#0 8879307#1 8879307#2 8879307#3 8879307#4 9654448#0 9654448#1"/>
    </vehicle>
    <vehicle id="17" depart="1.70">
        <route edges="-804722599#0 -24237533 1184831400#0 1184831400#1 -151407582#2 -151407582#1 151407582#1 151407582#2 755686154 4866597#0 4866597#1 4866597#2 803111635#0 803111635#1 785997324#1 785997324#2 785997324#3 786360378 785997325 786360379 786360377 786360376#1 786360376#2 786360375#0 786360375#1 829116548#0 829116548#1 24237507#0 24237507#1 24237507#2 786360374 850437082#0 850437082#1 850437082#2 850437080 921736784#0 24793876 -899638334 -24080379#10 -24080379#9 -24080379#8 -24080379#7 -24080379#6 -24080379#5 -24080379#2 -24080379#1 427253901#2 24080379#0"/>
    </vehicle>
    <vehicle id="19" depart="1.90">
        <route edges="786360378 785997325 786360379 786360377 786360376#1 786360376#2 786360375#0 786360375#1 829116548#0 829116548#1 24581654#0 24581654#1"/>
    </vehicle>
    <vehicle id="20" depart="2.00">
        <route edges="342220610#0 342220610#1 997463020#0 997463020#1 997463020#2 1340343228#0 1340343228#1 -377494912 -24793872#5 -24793872#4 -24793872#3 -24793872#2 -24793872#1 -24793872#0 43581151 921736784#0 921736784#1 921736784#2 -786360374 -24237507#2 -24237507#1 -24237507#0 -829116548#1 -829116548#0 -786360375#1 -786360375#0 -786360376#2 -786360376#1 -786360377 -786360379 -785997325 -786360378 -785997324#3 -785997324#2 -785997324#1 -803111635#1 -803111635#0 -4866597#2 -4866597#1 -4866597#0 -755686154 -151407582#2 -151407582#1 -504769383#2 -504769383#1 -504769383#0 -17088005#4 -17088005#3 -17088005#2 -17088005#1 -17088005#0"/>
    </vehicle>
    <vehicle id="22" depart="2.20">
        <route edges="-21332995#3 21332995#3 21332995#4 21332995#6 21332995#7 21332992#0 21332992#1 21332992#2 21332994#0 21332994#1 21332994#2 -8153111#2 -8153111#0 -502196981 -146658785#7 -146658785#5 -146658785#4 -146658785#3 -146658785#2 -146658785#1 -146658785#0 -757674089 -757674090 -377392193#4 -377392193#3 -377392193#2 -377392193#1 -377392193#0 -4800919#1 -377494912 -24793872#5 -24793872#4 -24793872#3 -24793872#2 -24793872#1 -24793872#0 43581151 921736784#0 24793876 -899638334 -24080379#10 -24080379#9 -24080379#8 -24080379#7 -24080379#6 -24080379#5 -24080379#2 -24080379#1 427253901#2 -427253901#2"/>
    </vehicle>
    <vehicle id="23" depart="2.30">
        <route edges="-24080379#10 24080379#10 899638334 43581150 921736784#2 850437082#0 850437082#1 850437082#2 24793873 24793872#0 24793872#1 24793872#2 24793872#3 24793872#4 24793872#5 377494912 4800919#1 377392193#0 377392193#1 377392193#2 377392193#3 377392193#4 757674090 757674089 146658785#0 146658785#1 146658785#2 146658785#3 146658785#4 146658785#5 146658785#7 502196981 8153111#0 8153111#2 8153111#4 8153111#5 8153111#6 8153111#7 8153111#10 -919903533#1 -919903533#0 -8463917 -4801664"/>
    </vehicle>
    <vehicle id="24" depart="2.40">
        <route edges="25597324#0 25597324#1 25597324#2 25597324#3 25597324#4 25597324#5 25597324#6 24843561#8 146807712#0 146807712#1 146807712#2 146807712#3 803111636#0 803111636#1 4866597#0 4866597#1 4866597#2 803111635#0 803111635#1 785997324#1 785997324#2 785997324#3 786360378 785997325 786360379 786360377 786360376#1 786360376#2 786360375#0 786360375#1 829116548#0 829116548#1 24237507#0 24237507#1 24237507#2 786360374 850437082#0 850437082#1 850437082#2 24793873 24793872#0 24793872#1 24793872#2 24793872#3 24793872#4 24793872#5 377494912 4800919#1 377392193#0 377392193#1 377392193#2 377392193#3 377392193#4 757674090 757674089 146658785#0 146658785#1 146658785#2 146658785#3 146658785#4 146658785#5 146658785#7 502196981 8153111#0 8153111#2 8153111#4 8153111#5 8153111#6 -8153111#6"/>
    </vehicle>
    <vehicle id="26" depart="2.60">
        <route edges="-4800916#4 4800916#4 4800916#5 8879307#0 8879307#1"/>
    </vehicle>
    <vehicle id="27" depart="2.70">
        <route edges="27181785 146807712#2 146807712#3 803111636#0 803111636#1 4866597#0 4866597#1 4866597#2 803111635#0 803111635#1 785997324#1 785997324#2 785997324#3 786360378 785997325 786360379 786360377 786360376#1 786360376#2 786360375#0 24581655#0 24581655#1 24581655#2 786955310 25597325 786955309 786955307 786955306#0 786955306#1 27493167#0 27493167#1 27493167#2 27493167#3 180756389#0 180756389#1 24843561#1 24843561#2 24843561#3 24843561#4 24843561#5 24843561#6"/>
    </vehicle>
    <vehicle id="28" depart="2.80">
        <route edges="-27280378#1 -27280378#0 -27280376#1 -27280376#0 803111636#0 803111636#1 4866597#0 4866597#1 4866597#2 803111635#0 803111635#1 785997324#1 785997324#2 785997324#3 786360378 785997325 786360379 786360377 786360376#1 786360376#2 786360375#0 786360375#1 829116548#0 829116548#1 24237507#0 24237507#1 24237507#2 786360374 850437082#0 850437082#1 850437082#2 24793873 24793872#0 24793872#1 24793872#2 24793872#3 24793872#4 24793872#5 377494912 377392192#1 422092229#0 422092229#1 422092229#3 422092229#4"/>
    </vehicle>
    <vehicle id="31" depart="3.10">
        <route edges="21332995#4 21332995#6 21332995#7 21332992#0 21332992#1 21332992#2 21332994#0 21332994#1 21332994#2 -8153111#2 -8153111#0 -502196981 -146658785#7 -146658785#5 -146658785#4 -146658785#3 -146658785#2 -146658785#1 -146658785#0 -757674089 -757674090 -377392193#4 -377392193#3 -377392193#2 -377392193#1 -377392193#0 -4800919#1 -377494912 -24793872#5 -24793872#4 -24793872#3 -24793872#2 -24793872#1 -24793872#0 43581151 921736784#0 24793876 -899638334 -24080379#10 28543279#0 28543279#1 28543279#2 28543279#3 28543279#4 28543279#6"/>
    </vehicle>
    <vehicle id="32" depart="3.20">
        <route edges="746492951#0 -746492951#0 -675851433 -504769384#1 -504769384#0 -22195978#0 755686155#1 151407582#0 151407582#1 151407582#2 755686154 4866597#0 4866597#1 4866597#2 803111635#0 803111635#1 785997324#1 785997324#2 785997324#3 786360378 785997325 786360379 786360377 786360376#1 786360376#2 786360375#0 786360375#1 829116548#0 829116548#1 24237507#0 24237507#1 24237507#2 786360374 850437082#0 850437082#1 850437082#2 24793873 24793872#0 24793872#1 24793872#2 24793872#3 24793872#4 24793872#5 377494912 -1340343228#1 -1340343228#0 -997463020#2 -997463020#1 -997463020#0 -342220610#1 -342220610#0 342220762#0 342220762#1 850437078#1 850437078#2 850437078#3 8412741 -4801486#19 -4801486#18 -4801486#16 -4801486#15 -4801486#14 4801486#14"/>
    </vehicle>
    <vehicle id="34" depart="3.40">
        <route edges="-515896942 -419352675#2 -419352675#1 -419352675#0 24080379#5 24080379#6 24080379#7 24080379#8 24080379#9 24080379#10 899638334 43581150 921736784#2 850437082#0 850437082#1 850437082#2 24793873 24793872#0 24793872#1 24793872#2 24793872#3 24793872#4 24793872#5 377494912 -1340343228#1 -1340343228#0 -997463020#2 -997463020#1 -997463020#0 -342220610#1 -342220610#0 342220762#0 342220762#1 850437078#1 850437078#2 850437078#3 8412741 -4801486#19 -4801486#18 -4801486#16"/>
    </vehicle>
    <vehicle id="35" depart="3.50">
        <route edges="-342220610#1 342220610#1 997463020#0 997463020#1 997463020#2 1340343228#0 1340343228#1 -377494912 -24793872#5 -24793872#4 -24793872#3 -24793872#2 -24793872#1 -24793872#0 43581151 921736784#0 24793876 -899638334 -24080379#10 -24080379#9 -24080379#8 -24080379#7 -24080379#6 -24080379#5 -24080379#2 -24080379#1 427253901#2 427253901#3 899638333#3"/>
    </vehicle>
    <vehicle id="36" depart="3.60">
        <route edges="801387571#2 146480965#0 -146480965#0 -801387571#2 -801387571#1 -801387571#0 4866597#0 4866597#1 4866597#2 803111635#0 803111635#1 785997324#1 785997324#2 785997324#3 786360378 785997325 786360379 786360377 786360376#1 786360376#2 786360375#0 24581655#0 24581655#1 24581655#2 -740487241"/>
    </vehicle>
    <vehicle id="37" depart="3.70">
        <route edges="27181790#3 -27181790#3 -27181790#2 -27181790#1 -27181790#0 -27181788#2 -27181788#1 -27181788#0 -803101997#2 -803101997#1 803111635#1 785997324#1 785997324#2 785997324#3 786360378 785997325 786360379 786360377 786360376#1 786360376#2 786360375#0 786360375#1 829116548#0 829116548#1 24237507#0 24237507#1 24237507#2 786360374 850437082#0 850437082#1 850437082#2 24793873 24793872#0 24793872#1 24793872#2 24793872#3 24793872#4 24793872#5 377494912 4800919#1 377392193#0 377392193#1 377392193#2 377392193#3 377392193#4 757674090 757674089 146658785#0 146658785#1 146658785#2 146658785#3 146658785#4 146658785#5 146658785#7 21332986 21332987 -21332992#2 -21332992#1 -21332992#0 -21332995#7 -21332995#6 -21332995#4 -21332995#3 -21332995#2 -21332995#1 -21332995#0 4801456#12 917192768#2 9728871#0 -9728871#0 -917192768#2"/>
    </vehicle>
    <vehicle id="38" depart="3.80">
        <route edges="8463917 -8463917 -4801664 -502978860 1094620392"/>
    </vehicle>
    <vehicle id="39" depart="3.90">
        <route edges="-4800916#2 4800916#2 4800916#3 4800916#4 -4800916#4"/>
    </vehicle>
    <vehicle id="40" depart="4.00">
        <route edges="21332997#1 4801456#8 4801456#9 4801456#11 4801456#12 4801486#0 4801486#1 4801486#2 4801486#3 4801486#4 4801486#5 4801486#6 4801486#7 4801486#8 4801486#10 -4801486#10"/>
    </vehicle>
    <vehicle id="42" depart="4.20">
        <route edges="-843630337#1 843630337#1 -22704080 -4801456#1 -4801456#0 -8153111#10 -8153111#7 -8153111#6 -8153111#5 -8153111#4 -8153111#2 -8153111#0 -502196981 -146658785#7 -146658785#5 -146658785#4 -146658785#3 -146658785#2 -146658785#1 -146658785#0 -757674089 -757674090 -377392193#4 -377392193#3 -377392193#2 -377392193#1 -377392193#0 -4800919#1 377392192#1 422092229#0 422092229#1 422092229#3 422092229#4 422092229#5 422092229#6 422092229#7 422092229#8 422092229#9 422092229#10 422092229#11 -422092229#11"/>
    </vehicle>
    <vehicle id="43" depart="4.30">
        <route edges="997463020#0 997463020#1 -17088743#3 17088743#3"/>
    </vehicle>
    <vehicle id="44" depart="4.40">
        <route edges="-23512009#0 23512007 24843561#0 24843561#1 24843561#2 24843561#3 24843561#4 24843561#5 24843561#6 24843561#8 146807712#0 146807712#1 146807712#2 146807712#3 803111636#0 803111636#1 -755686154 -151407582#2 -151407582#1 -504769383#2 -504769383#1 -504769383#0 -17088005#4 -17088005#3 -17088005#2 -17088005#1"/>
    </vehicle>
    <vehicle id="46" depart="4.60">
        <route edges="4801486#19 4810543 850437076 850437078#5 4803199#0 4803199#1 342220610#0 342220610#1 997463020#0 997463020#1 997463020#2 1340343228#0 1340343228#1 377392192#1 422092229#0 422092229#1 422092229#3 422092229#4 422092229#5 422092229#6 422092229#7 422092229#8 422092229#9 422092229#10 422092229#11 967098223#2 -967098223#2"/>
    </vehicle>
    <vehicle id="49" depart="4.90">
        <route edges="9653526#0 -9653526#0 -9653518#0 -146658785#1 -146658785#0 -757674089 -757674090 -377392193#4 -377392193#3 -377392193#2 -377392193#1 -377392193#0 -4800919#1 -377494912 -24793872#5 -24793872#4 -24793872#3 -24793872#2 -24793872#1 -24793872#0 43581151 921736784#0 921736784#1 921736784#2 -786360374 -24237507#2 -24237507#1 -24237507#0 24581654#0 24581654#1 24581654#2 740487241 786955310"/>
    </vehicle>
    <vehicle id="50" depart="5.00">
        <route edges="-10507804#6 -10507804#5 -10507804#4 -10507804#3 -10507804#2 -10507804#1 -10507804#0 -967098223#2 -422092229#11 -422092229#10 -422092229#9 -422092229#8 -422092229#7 -422092229#6 -422092229#5 -422092229#4 -422092229#3 -422092229#1 -422092229#0 -377392192#1 377392192#1 422092229#0"/>
    </vehicle>
    <vehicle id="51" depart="5.10">
        <route edges="27493645#1 107709793#0 -107709793#0 -27493645#1 -27493645#0 25365699#2 25365699#3 -24843540#1 -24843540#0 755686155#0 755686155#1 151407582#0 151407582#1 151407582#2 755686154 4866597#0 4866597#1 4866597#2 803111635#0 803111635#1 785997324#1 785997324#2 785997324#3 786360378 785997325 786360379 786360377 786360376#1 786360376#2 786360375#0 786360375#1 829116548#0 829116548#1 24237507#0 24237507#1 24237507#2 786360374 850437082#0 850437082#1 850437082#2 24793873 24793872#0 24793872#1 24793872#2 24793872#3 24793872#4 24793872#5 377494912 4800919#1 377392193#0 377392193#1 377392193#2 377392193#3 377392193#4 757674090 757674089 146658785#0 146658785#1 146658785#2 146658785#3 146658785#4 146658785#5 146658785#7 21332986 21332987 -21332992#2 -21332992#1 -21332992#0 -21332995#7 21332995#7"/>
    </vehicle>
    <vehicle id="52" depart="5.20">
        <route edges="-4800916#4 -4800916#3 -4800916#2 -4800916#1 -4800916#0 44027604#0 44027604#1 44027604#2 850437078#3 850437078#4 850437078#5 4803199#0 4803199#1 342220610#0 342220610#1 997463020#0 997463020#1 997463020#2 1340343228#0 1340343228#1 -377494912 -24793872#5 -24793872#4 -24793872#3 -24793872#2 -24793872#1 -24793872#0 43581151 921736784#0 921736784#1 921736784#2 -786360374 -24237507#2 -24237507#1 -24237507#0 -829116548#1 -829116548#0 -786360375#1 -786360375#0 -786360376#2 -786360376#1 -786360377 -786360379 -785997325 -786360378 -785997324#3 -785997324#2 -785997324#1 -803111635#1 -803111635#0 -4866597#2 -4866597#1 -4866597#0 801387571#0 801387571#1 801387571#2 146480965#0 146480965#1 146480965#2 146480965#3 27181802#0 27181801"/>
    </vehicle>
    <vehicle id="55" depart="5.50">
        <route edges="801387571#2 146480965#0 -146480965#0 -801387571#2 -801387571#1 -801387571#0 4866597#0 4866597#1 4866597#2 803111635#0 803111635#1 785997324#1 785997324#2 785997324#3 786360378 785997325 786360379 786360377 786360376#1 786360376#2 786360375#0 786360375#1 829116548#0 829116548#1 24237507#0 24237507#1 24237507#2 786360374 850437082#0 850437082#1 850437082#2 24793873 24793872#0 24793872#1 24793872#2 24793872#3 24793872#4 24793872#5 377494912 -1340343228#1 -1340343228#0 -997463020#2 -997463020#1 -997463020#0 -342220610#1 -342220610#0 342220762#0 342220762#1 850437078#1 850437078#2 850437078#3 8412741 -4801486#19 -4801486#18 -4801486#16 -4801486#15 -4801486#14 -4801486#13 -4801486#12"/>
    </vehicle>
    <vehicle id="57" depart="5.70">
        <route edges="8450159#0 8450159#1 850437076 850437078#5 4803199#0 4803199#1 342220610#0 342220610#1 997463020#0 997463020#1 997463020#2 1340343228#0 1340343228#1 -377494912 -24793872#5 -24793872#4 -24793872#3 -24793872#2 -24793872#1 -24793872#0 43581151 921736784#0 921736784#1 921736784#2 -786360374 -24237507#2 -24237507#1 -24237507#0 -829116548#1 -829116548#0 -786360375#1 -786360375#0 -786360376#2 -786360376#1 -786360377 -786360379 -785997325 -786360378 -785997324#3 -785997324#2 -785997324#1 -803111635#1 -803111635#0 -4866597#2 -4866597#1 -4866597#0 801387571#0 801387571#1 801387571#2"/>
    </vehicle>
    <vehicle id="58" depart="5.80">
        <route edges="-4801664 -502978860 502978860 4801664 8463917 919903533#0 919903533#1 -8153111#10 -8153111#7 -8153111#6 -8153111#5 -8153111#4 -8153111#2 -8153111#0 -502196981 -146658785#7 -146658785#5 -146658785#4 -146658785#3 -146658785#2 -146658785#1 -146658785#0 -757674089 -757674090 -377392193#4 -377392193#3 -377392193#2 -377392193#1 -377392193#0 -4800919#1 -377494912 -24793872#5 -24793872#4 -24793872#3 -24793872#2 -24793872#1 -24793872#0 43581151 921736784#0 921736784#1 921736784#2 -786360374 -24237507#2 -24237507#1 -24237507#0 -829116548#1 -829116548#0 -786360375#1 -786360375#0 -786360376#2 -786360376#1 -786360377 -786360379 -785997325 -786360378 27181791#0 27181792#0"/>
    </vehicle>
    <vehicle id="59" depart="5.90">
        <route edges="24793872#5 -24793872#5 -24793872#4 -24793872#3 -24793872#2 -24793872#1 -24793872#0 43581151 921736784#0 921736784#1 921736784#2 -786360374 -24237507#2 -24237507#1 -24237507#0 -829116548#1 -829116548#0 -786360375#1 -786360375#0 -786360376#2 -786360376#1 -786360377 -786360379 -785997325 -786360378 -785997324#3 -785997324#2 -785997324#1 -803111635#1 -803111635#0 -4866597#2 -4866597#1 -4866597#0 801387571#0 801387571#1 801387571#2 146480965#0 146480965#1 146480965#2 146480965#3 27181802#0 27181802#1 27181802#2 -27181802#2 -27181802#1"/>
    </vehicle>
    <vehicle id="60" depart="6.00">
        <route edges="4800916#10 4800916#11 4800916#12 4800916#13 21332986 21332987 -21332992#2 -21332992#1 -21332992#0 -21332995#7 -21332995#6 -21332995#4 21333014"/>
    </vehicle>
    <vehicle id="61" depart="6.10">
        <route edges="4801456#6 4801456#7 4801456#8 4801456#9 4801456#11 21332995#0"/>
    </vehicle>
    <vehicle id="64" depart="6.40">
        <route edges="803101997#2 -803101997#2 -803101997#1 -803111635#0 -4866597#2 -4866597#1 -4866597#0 -755686154 -151407582#2 -151407582#1 -151407582#0 -755686155#1 22195978#0 504769384#0 504769384#1 -746492949 746492949"/>
    </vehicle>
    <vehicle id="65" depart="6.50">
        <route edges="-502196981 -146658785#7 -146658785#5 -146658785#4 -146658785#3 -146658785#2 -146658785#1 -146658785#0 -757674089 -757674090 -377392193#4 -377392193#3 -377392193#2 -377392193#1 -377392193#0 -4800919#1 -377494912 -24793872#5 -24793872#4 -24793872#3 -24793872#2 -24793872#1 -24793872#0 43581151 921736784#0 921736784#1 921736784#2 -786360374 -24237507#2 -24237507#1 -24237507#0 -829116548#1 -829116548#0 -786360375#1 -786360375#0 -786360376#2 -786360376#1 -786360377 -786360379 -785997325 -786360378 -785997324#3 -785997324#2 -785997324#1 -803111635#1 -803111635#0 -4866597#2 -4866597#1 -4866597#0 -755686154 -151407582#2 -151407582#1 -151407582#0 -755686155#1 22195978#0 504769384#0 504769384#1 675851433 675851434#0 185987587#0 -185987587#0"/>
    </vehicle>
    <vehicle id="66" depart="6.60">
        <route edges="803101997#2 -803101997#2 -803101997#1 803111635#1 785997324#1 785997324#2 785997324#3 786360378 785997325 786360379 786360377 786360376#1 786360376#2 786360375#0 786360375#1 829116548#0 829116548#1 24237507#0 24237507#1 24237507#2 786360374 850437082#0 850437082#1 850437082#2 24793873 24793872#0 24793872#1 24793872#2 24793872#3 24793872#4 24793872#5 377494912 4800919#1 377392193#0 377392193#1 377392193#2 377392193#3 377392193#4 757674090 757674089 146658785#0 146658785#1 146658785#2 146658785#3 146658785#4 146658785#5 146658785#7 502196981 8153111#0 8153111#2 8153111#4 8153111#5 8153111#6 8153111#7 8153111#10 -919903533#1 919903533#1"/>
    </vehicle>
    <vehicle id="67" depart="6.70">
        <route edges="-21332997#1 -21332997#0 21332995#6 21332995#7 21332992#0 21332992#1 21332992#2 21332994#0 21332994#1 21332994#2 -8153111#2 -8153111#0 -502196981 -146658785#7 -146658785#5 -146658785#4 -146658785#3 -146658785#2 146658785#2"/>
    </vehicle>
    <vehicle id="68" depart="6.80">
        <route edges="-21332985#0 4800916#10 4800916#11 4800916#12 4800916#13 -146658785#7 -146658785#5 -146658785#4 -146658785#3 -146658785#2 -146658785#1 -146658785#0 -757674089 -757674090 -377392193#4 -377392193#3 -377392193#2 -377392193#1 -377392193#0 -4800919#1 4800919#1"/>
    </vehicle>
    <vehicle id="71" depart="7.10">
        <route edges="-4800916#3 -4800916#2 -4800916#1 -4800916#0 44027604#0 44027604#1 44027604#2 850437078#3 850437078#4 850437078#5 4803199#0 4803199#1 342220610#0 342220610#1 997463020#0 997463020#1 997463020#2 1340343228#0 1340343228#1 -377494912 -24793872#5 -24793872#4 -24793872#3 -24793872#2 -24793872#1 -24793872#0 43581151 921736784#0 921736784#1 921736784#2 -786360374 -24237507#2 -24237507#1 -24237507#0 -829116548#1 -829116548#0 -786360375#1 -786360375#0 -786360376#2 -786360376#1 -786360377 -786360379 -785997325 -786360378 -785997324#3 -785997324#2 -785997324#1 -803111635#1 803101997#1 803101997#2"/>
    </vehicle>
    <vehicle id="73" depart="7.30">
        <route edges="18684438#0 -18684438#0 4801486#12 4801486#13 4801486#14 4801486#15 4801486#16 4801486#18 4801486#19 4810543 850437076 850437078#5 4803199#0 4803199#1 342220610#0 342220610#1 997463020#0 997463020#1 997463020#2 1340343228#0 1340343228#1 377392192#1 422092229#0 422092229#1 422092229#3 422092229#4 422092229#5"/>
    </vehicle>
    <vehicle id="74" depart="7.40">
        <route edges="-28543279#4 -28543279#3 -28543279#2 -28543279#1 -28543279#0 24080379#10 899638334 43581150 921736784#2 850437082#0 850437082#1 850437082#2 24793873 24793872#0 24793872#1 24793872#2 24793872#3 24793872#4 24793872#5 377494912 4800919#1 377392193#0 377392193#1 377392193#2 377392193#3 377392193#4 757674090 757674089 146658785#0 146658785#1 146658785#2 146658785#3 146658785#4 146658785#5 146658785#7 502196981 8153111#0 8153111#2 8153111#4 8153111#5 8153111#6 8153111#7 8153111#10 4801456#0 4801456#1 22704080 -843630337#1 -843630337#0 -738863622#1 -738863622#0"/>
    </vehicle>
    <vehicle id="76" depart="7.60">
        <route edges="-9653518#6 -9653518#5 -9653518#4 -9653518#3 -9653518#2 -9653518#0 146658785#2 146658785#3 146658785#4 146658785#5 146658785#7 -4800916#13 -4800916#12 -4800916#11 -4800916#10 21332985#0"/>
    </vehicle>
    <vehicle id="77" depart="7.70">
        <route edges="-24237533 1184831400#0 1184831400#1 -151407582#2 -151407582#1 151407582#1 151407582#2 755686154 4866597#0 4866597#1 4866597#2 803111635#0 803111635#1 785997324#1 785997324#2 785997324#3 786360378 785997325 786360379 786360377 786360376#1 786360376#2 786360375#0 786360375#1 829116548#0 829116548#1 24237507#0 24237507#1 24237507#2 786360374 850437082#0 850437082#1 850437082#2 24793873 24793872#0 24793872#1 24793872#2 24793872#3 24793872#4 24793872#5 377494912 377392192#1 422092229#0 422092229#1 422092229#3 422092229#4 422092229#5 -422092229#5"/>
    </vehicle>
    <vehicle id="78" depart="7.80">
        <route edges="-746492951#0 -675851433 -504769384#1 -504769384#0 -22195978#0 755686155#1 151407582#0 151407582#1 151407582#2 755686154 4866597#0 4866597#1 4866597#2 803111635#0 803111635#1 785997324#1 785997324#2 785997324#3 786360378 785997325 786360379 786360377 786360376#1 786360376#2 786360375#0 786360375#1 829116548#0 829116548#1 24237507#0 24237507#1 24237507#2 786360374 850437082#0 850437082#1 850437082#2 24793873 24793872#0 24793872#1 24793872#2 24793872#3 24793872#4 24793872#5"/>
    </vehicle>
    <vehicle id="80" depart="8.00">