[General]
network = NJSAp  # Network name
repeat = 5
seed-set = ${repetition}
sim-time-limit = 30.05s


# Define constraint area boundaries (X, Y, Z)
**.constraintAreaMinX = 0m
**.constraintAreaMinY = 0m
**.constraintAreaMinZ = 0m
**.constraintAreaMaxX = 648m
**.constraintAreaMaxY = 470m
**.constraintAreaMaxZ = 0m

# Mobility Models
# MassMobility (commented out, used for randomized movement in previous setup)
**.node[*].mobility.typename = "MassMobility"
**.node[*].mobility.changeInterval = 2ms            # Movement change interval
**.node[*].mobility.angleDelta = normal(0deg, 3deg) # Angle variation with randomness
**.node[*].mobility.speed = 30mps
**.node[*].mobility.updateInterval = 100ms           # Update interval for movement

# LinearMobility (currently active mobility model)
#**.host[*].mobility.typename = "LinearMobility"
#**.host[*].mobility.speed = 31mps                  # Constant speed for all hosts
#**.host[*].mobility.updateInterval = 100ms         # Position update interval
#**.host[*].mobility.initialMovementHeading = 0deg  # Initial movement direction (horizontal)

# StationaryMobility for central host and jammer
*.centralHost.mobility.typename = "StationaryMobility"  # Central host remains stationary

*.jammer.mobility.typename = "StationaryMobility"       # Jammer remains stationary
#*.jammer.mobility.typename = "MassMobility"
#*.jammer.mobility.changeInterval = 2ms            # Movement change interval
#*.jammer.mobility.angleDelta = normal(0deg, 3deg) # Angle variation with randomness
#*.jammer.mobility.speed = 30mps # Speed with a normal distribution
#*.jammer.mobility.updateInterval = 100ms           # Update interval for movement

# Ping Application Configuration
*.node[*].numApps = 2  # Each host and RSU has two applications (NJS + SNR)
*.jammer.numApps = 1
*.RSU.numApps = 4

# Ping application for hosts
*.node[*].app[0].typename = "NJSPingApp"  # Ping application for all hosts
*.node[*].app[0].destAddr = "RSU"         # Hosts ping the RSU
*.node[*].app[0].sendInterval = 80ms      # Time interval between sending packets
*.node[*].app[0].packetSize = 1518B       # Packet size

*.node[*].app[1].typename = "SNRPingApp"  # Ping application for all hosts
*.node[*].app[1].destAddr = "RSU"         # Hosts ping the RSU
*.node[*].app[1].sendInterval = 80ms      # Time interval between sending packets
*.node[*].app[1].packetSize = 1518B       # Packet size

# Ping application for RSU
*.RSU.app[0].typename = "NJSPingApp"  # Ping application for RSU
*.RSU.app[0].destAddr = "node[*]"     # RSU pings all hosts
*.RSU.app[0].sendInterval = 20ms      # Time interval between sending packets
*.RSU.app[1].typename = "NJSLoggingApp"
*.RSU.app[1].cleanAfterEachCalculation = true
*.RSU.app[2].typename = "NJSLegacyLoggingApp"
*.RSU.app[2].cleanAfterEachCalculation = true
*.RSU.app[3].typename = "SNRLoggingApp"
*.RSU.app[3].cleanAfterEachCalculation = true

# NIC (Network Interface Card) Settings
**.wlan*.bitrate = 2Mbps  # Bitrate for all WLAN devices

# MAC (Medium Access Control) configuration
**.wlan[*].mac.dcf.channelAccess.cwMin = 7  # Minimum contention window for CSMA/CA

# Radio transmitter and receiver settings
*.RSU.wlan[*].radio.transmitter.power = 5mW       # Transmit power for RSU
*.node[*].wlan[*].radio.transmitter.power = 5mW   # Transmit power for hosts
**.wlan[*].radio.transmitter.bitrate = 2Mbps      # Transmit bitrate for all devices
**.wlan[*].radio.transmitter.headerLength = 272B  # Transmitter header length
**.wlan[*].radio.transmitter.centerFrequency = 2.4GHz  # Center frequency (2.4 GHz)
**.wlan[*].radio.receiver.sensitivity = -85dBm    # Receiver sensitivity
**.wlan[*].radio.receiver.snirThreshold = 4dB     # Signal-to-noise-and-interference threshold
# The above settings should give an approximate range of 395m

# MAC Maximum Transmission Unit (MTU) size
**.wlan[*].mac.mtu = 4096B  # Set MTU size for all WLAN interfaces
**.wlan[0].radio.receiver.ignoreInterference = false

# Network Size
*.numHosts = 20  # Number of vehicles in the network

# Visualizer Settings
*.visualizer.physicalLinkVisualizer.displayLinks = true  # Display physical links between nodes
*.RSU.wlan[*].radio.displayCommunicationRange = true    # Show RSU communication range

# Jammer Configuration
*.jammer.app[0].typename = "NJSJammerApp"           # Jamming application type
*.jammer.app[0].destAddr = ""                       # Destination address (none)
*.jammer.app[0].sendInterval = 5ms                  # Interval between jamming signals
*.jammer.app[0].packetSize = 8B                     # Small packet size for jamming
*.jammer.app[0].jammingSourceAddress = "jammer"     # Jamming source address
*.jammer.app[0].isProactive = false                 # Jammer acts reactively
*.jammer.app[0].jammingRadius = 215m                # Jamming radius

# Jammer Radio Settings
*.jammer.wlan[*].radio.displayCommunicationRange = true  # Display jammer's communication range
*.jammer.wlan[*].radio.transmitter.power = 1.5mW         # Jamming power


*.visualizer.*.mobilityVisualizer.displayVelocities = true